output/s8_winter_peak_handoff/cases/npcc_ny_lite_s8_winter_peak_operating_case.m
function mpc = npcc_ny_lite_s8_winter_peak_operating_case
%NPCC_NY_LITE_S8_WINTER_PEAK_OPERATING_CASE

%% MATPOWER Case Format : Version 2
mpc.version = '2';

%%-----  Power Flow Data  -----%%
%% system MVA base
mpc.baseMVA = 100;

%% bus data
%	bus_i	type	Pd	Qd	Gs	Bs	area	Vm	Va	baseKV	zone	Vmax	Vmin
mpc.bus = [
	37	1	0	0	0	0	2	1.02100313	20.9632212	345	70	1.1	0.9;
	38	1	0	0	0	0	2	1.0319714	25.4159296	345	70	1.1	0.9;
	39	1	152.626753	38.2518701	0	0	2	0.999498185	16.3197795	345	71	1.1	0.9;
	40	1	0	0	0	0	2	1.0474538	17.8759997	230	70	1.1	0.9;
	41	1	695.244198	107.404319	0	0	2	1.06962395	13.5125484	115	70	1.1	0.9;
	42	2	175.797462	14.6069874	0	0	2	1.1	14.059003	115	70	1.1	0.9;
	43	1	0	0	0	0	2	1.0573451	30.7470796	345	69	1.1	0.9;
	44	1	0	0	0	0	2	1.06365915	27.6578363	230	69	1.1	0.9;
	45	1	620.716579	35.6594548	0	0	2	1.0620279	25.2592985	115	69	1.1	0.9;
	46	1	7.80764059	-12.4811127	0	0	2	1.09322039	26.9887306	115	68	1.1	0.9;
	47	2	179.236271	29.3673241	0	0	2	1.09999999	33.2210683	230	68	1.1	0.9;
	48	2	0	0	0	0	2	1.1	29.3915448	230	68	1.1	0.9;
	49	1	70.6082278	4.99244509	0	0	2	1.00362111	13.6126662	115	68	1.1	0.9;
	50	2	0	0	0	0	2	1.1	40.9452925	345	67	1.1	0.9;
	51	2	534.620149	47.4527743	0	0	2	1.08300607	35.289283	115	67	1.1	0.9;
	52	1	0	0	0	0	2	1.08574763	44.7559085	345	66	1.1	0.9;
	53	2	693.312159	162.457409	0	0	2	1.09999998	44.3216212	115	66	1.1	0.9;
	54	2	7.10145729	0	0	0	2	1.05172033	49.3454807	230	65	1.1	0.9;
	55	2	333.41342	46.8696181	0	0	2	1.08981247	46.4205077	230	65	1.1	0.9;
	56	2	70.5949333	15.623206	0	0	2	1.1	52.4187892	230	65	1.1	0.9;
	57	2	98.5045581	-2.13043719	0	0	2	1.0934149	43.3867497	115	65	1.1	0.9;
	58	1	34.4765953	13.4927689	0	0	2	1.06484475	44.9464439	230	65	1.1	0.9;
	59	1	289.357139	70.3044272	0	0	2	1.05436325	41.5897674	115	65	1.1	0.9;
	60	2	0	0	0	0	2	1.09860245	41.3163884	230	65	1.1	0.9;
	61	2	97.2732509	2.84058292	0	0	2	1.05145966	34.9045199	115	65	1.1	0.9;
	62	1	0	0	0	0	2	1.06290223	44.8237179	230	65	1.1	0.9;
	63	1	0	0	0	0	2	1.05838751	39.1077928	230	67	1.1	0.9;
	64	1	104.583696	15.8175914	0	0	2	1.05841767	36.0757972	115	67	1.1	0.9;
	65	2	66.5532606	0	0	0	2	1.07077891	37.8953042	115	67	1.1	0.9;
	66	1	0	0	0	0	2	1.07348882	43.3369251	345	67	1.1	0.9;
	67	1	0	0	0	0	2	1.06437504	38.7273037	230	67	1.1	0.9;
	68	2	154.315802	25.9408499	0	0	2	1.1	34.2192684	115	67	1.1	0.9;
	69	1	0	0	0	0	2	1.07231486	38.2580433	345	67	1.1	0.9;
	70	1	0	0	0	0	2	1.08706745	39.920033	230	67	1.1	0.9;
	71	2	271.332524	33.5332938	0	0	2	1.1	40.9276046	115	67	1.1	0.9;
	72	2	0	0	0	0	2	1.08884679	38.8425171	115	67	1.1	0.9;
	73	1	381.566883	95.6296752	0	0	3	0.977954429	10.347898	345	71	1.1	0.9;
	74	1	252.133161	0	0	0	3	0.974926849	1.57237472	345	73	1.1	0.9;
	75	1	0	0	0	0	3	0.968782604	-0.588157838	138	71	1.1	0.9;
	76	1	228.94013	57.3778051	0	0	3	0.972794501	0.262818089	345	71	1.1	0.9;
	77	1	0	0	0	0	3	0.977818902	1.06435512	345	73	1.1	0.9;
	78	2	450.569665	116.937984	0	0	3	0.974721326	0	345	72	1.1	0.9;
	79	3	1556.79975	390.170795	0	0	3	0.980677999	5.29361657	22	74	1.1	0.9;
	80	2	1471.97889	45.479528	0	0	3	0.952721175	-8.35509986	138	75	1.1	0.9;
	81	1	345.955499	86.7046211	0	0	3	0.950759831	-6.11493981	345	74	1.1	0.9;
	82	2	1556.79975	390.170795	0	0	3	0.997173511	11.2863449	22	74	1.1	0.9;
	9001	1	0	0	0	0	3	0.977954429	10.347898	345	71	1.1	0.9;
	9002	1	0	0	0	0	3	0.974926849	1.57237472	345	73	1.1	0.9;
	9003	1	0	0	0	0	3	0.952721175	-8.35509986	345	75	1.1	0.9;
];

%% generator data
%	bus	Pg	Qg	Qmax	Qmin	Vg	mBase	status	Pmax	Pmin	Pc1	Pc2	Qc1min	Qc1max	Qc2min	Qc2max	ramp_agc	ramp_10	ramp_30	ramp_q	apf
mpc.gen = [
	42	302.288736	349.52573	999	-999	1.1	400	1	462.736805	0	0	0	0	0	0	0	0	0	0	0	0;
	47	353.523449	70.3444442	999	-999	1.09999999	450	1	944.920662	0	0	0	0	0	0	0	0	0	0	0	0;
	48	14.9876769	132.871442	999	-999	1.1	500	1	40.0600457	0	0	0	0	0	0	0	0	0	0	0	0;
	50	1310.21462	448.554516	999	-999	1.1	700	1	1713.606	0	0	0	0	0	0	0	0	0	0	0	0;
	51	347.192282	44.8515469	999	-999	1.08300607	150	1	454.086504	0	0	0	0	0	0	0	0	0	0	0	0;
	53	286.871683	242.955128	999	-999	1.09999998	100	1	288.8	0	0	0	0	0	0	0	0	0	0	0	0;
	54	246.416034	0.470267887	999	-999	1.05172033	650	1	247.044497	0	0	0	0	0	0	0	0	0	0	0	0;
	54	246.416034	65.0449814	9999	-9999	1.05172033	650	1	247.044497	0	0	0	0	0	0	0	0	0	0	0	0;
	55	246.416034	416.208953	999	-999	1.08981247	1200	1	247.044497	0	0	0	0	0	0	0	0	0	0	0	0;
	56	388.510148	123.109611	999	-999	1.1	500	1	389.501011	0	0	0	0	0	0	0	0	0	0	0	0;
	57	11.2346026	88.7434425	999	-999	1.0934149	350	1	11.2632555	0	0	0	0	0	0	0	0	0	0	0	0;
	60	46.7184185	202.606111	999	-999	1.09860245	450	1	46.8375699	0	0	0	0	0	0	0	0	0	0	0	0;
	61	103.799939	-23.9178436	999	-999	1.05145966	200	1	104.064672	0	0	0	0	0	0	0	0	0	0	0	0;
	65	47.1804671	27.6861952	999	-999	1.07077891	100	1	61.7064794	0	0	0	0	0	0	0	0	0	0	0	0;
	68	114.644413	172.280965	999	-999	1.1	100	1	149.941354	0	0	0	0	0	0	0	0	0	0	0	0;
	71	20.0938219	94.1098296	999	-999	1.1	100	1	26.2803461	0	0	0	0	0	0	0	0	0	0	0	0;
	72	80.7254177	-17.3485866	999	-999	1.08884679	100	1	105.579313	0	0	0	0	0	0	0	0	0	0	0	0;
	78	1.36785828	777.172253	999	-999	0.974721326	100	1	565.099092	0	0	0	0	0	0	0	0	0	0	0	0;
	79	544.912153	53.5038859	999	-999	0.980677999	1150	1	963.227692	0	0	0	0	0	0	0	0	0	0	0	0;
	80	89.2887474	35.2376352	999	-999	0.952721175	800	1	222.491805	0	0	0	0	0	0	0	0	0	0	0	0;
	82	124.192525	123.659545	999	-999	0.997173511	500	1	219.532045	0	0	0	0	0	0	0	0	0	0	0	0;
	79	1132.3762	0	0	-0	0.980677999	100	1	2001.67332	0	0	0	0	0	0	0	0	0	0	0	0;
	82	180.388876	0	0	-0	0.997173511	100	1	318.86894	0	0	0	0	0	0	0	0	0	0	0	0;
	81	392.479043	0	0	-0	0.950759831	100	1	693.775465	0	0	0	0	0	0	0	0	0	0	0	0;
	43	128.317	0	0	-0	1.0573451	100	1	400	0	0	0	0	0	0	0	0	0	0	0	0;
	44	64.1584999	0	0	-0	1.06365915	100	1	200	0	0	0	0	0	0	0	0	0	0	0	0;
	38	408.905894	0	0	-0	1.0319714	100	1	625.943955	0	0	0	0	0	0	0	0	0	0	0	0;
	42	266.097368	0	0	-0	1.1	100	1	407.335872	0	0	0	0	0	0	0	0	0	0	0	0;
	41	141.138268	0	0	-0	1.06962395	100	1	216.051289	0	0	0	0	0	0	0	0	0	0	0	0;
	37	297.846071	0	0	-0	1.02100313	100	1	455.936074	0	0	0	0	0	0	0	0	0	0	0	0;
	73	321.224543	0	0	-0	0.977954429	100	1	788.260433	0	0	0	0	0	0	0	0	0	0	0	0;
	76	209.26751	0	0	-0	0.972794501	100	1	513.526446	0	0	0	0	0	0	0	0	0	0	0	0;
	39	366.031438	0	0	-0	0.999498185	100	1	898.213121	0	0	0	0	0	0	0	0	0	0	0	0;
	80	183.17853	0	0	-0	0.952721175	100	1	456.448577	0	0	0	0	0	0	0	0	0	0	0	0;
	9003	684.634733	0	0	-0	0.952721175	100	1	1705.98896	0	0	0	0	0	0	0	0	0	0	0	0;
	48	-164.08012	-41.1223545	500	-500	1.03	100	1	-164.07912	-164.08112	0	0	0	0	0	0	0	0	0	0	0;
	37	38.1333324	9.55711397	500	-500	1.03	100	1	38.1343324	38.1323324	0	0	0	0	0	0	0	0	0	0	0;
	73	57.1999986	14.335671	500	-500	1.03	100	1	57.2009986	57.1989986	0	0	0	0	0	0	0	0	0	0	0;
	54	877.91671	220.026668	750	-750	1.03	100	1	877.91771	877.91571	0	0	0	0	0	0	0	0	0	0	0;
	66	228.438694	57.2521333	750	-750	1.03	100	1	228.439694	228.437694	0	0	0	0	0	0	0	0	0	0	0;
	67	97.9022973	24.5366286	500	-500	1.03	100	1	97.9032973	97.9012973	0	0	0	0	0	0	0	0	0	0	0;
	75	163.170495	40.894381	500	-500	1.03	100	1	163.171495	163.169495	0	0	0	0	0	0	0	0	0	0	0;
	81	163.170495	40.894381	500	-500	1.03	100	1	163.171495	163.169495	0	0	0	0	0	0	0	0	0	0	0;
];

%% branch data
%	fbus	tbus	r	x	b	rateA	rateB	rateC	ratio	angle	status	angmin	angmax
mpc.branch = [
	37	38	0.0016	0.0163	0.25	2500	0	0	0	0	1	-360	360;
	37	39	0.0008	0.0074	0.48	2500	0	0	0	0	1	-360	360;
	37	40	0.0009	0.0315	0.06	2500	0	0	0	0	1	-360	360;
	37	43	0.0013	0.0188	1.31	2500	0	0	0	0	1	-360	360;
	38	69	0.0043	0.0485	0.79	2500	0	0	0	0	1	-360	360;
	39	73	0.0019	0.0183	0.29	2500	0	0	0	0	1	-360	360;
	39	73	0.0019	0.0183	0.29	2500	0	0	0	0	1	-360	360;
	40	44	0.008	0.053	0.4	2500	0	0	0	0	1	-360	360;
	41	42	0.0018	0.0089	0.07	2500	0	0	0	0	1	-360	360;
	41	45	0.0776	0.2241	0.13	2500	0	0	0	0	1	-360	360;
	43	44	0	0.011	0	2500	0	0	0	0	1	-360	360;
	43	50	0.0025	0.0268	0.4	2500	0	0	0	0	1	-360	360;
	43	50	0.0025	0.0268	0.4	2500	0	0	0	0	1	-360	360;
	44	45	0	0.0205	0	2500	0	0	0	0	1	-360	360;
	44	48	0.015	0.105	0.79	2500	0	0	0	0	1	-360	360;
	45	46	0.1235	0.3548	0.16	2500	0	0	0	0	1	-360	360;
	45	51	0.0605	0.1896	0.08	2500	0	0	0	0	1	-360	360;
	45	71	0.1751	0.5575	0.12	2500	0	0	0	0	1	-360	360;
	46	47	0.0632	0.121	0.05	2500	0	0	0	0	1	-360	360;
	46	49	0.164	0.578	0.06	2500	0	0	0	0	1	-360	360;
	47	48	0	0.033	0	2500	0	0	0	0	1	-360	360;
	50	51	0	0.0207	0	2500	0	0	0	0	1	-360	360;
	50	52	0.002	0.022	1.28	2500	0	0	0	0	1	-360	360;
	51	53	0.0844	0.2161	0.22	2500	0	0	0	0	1	-360	360;
	51	72	0.0051	0.0232	0.3	2500	0	0	0	0	1	-360	360;
	52	53	0.0014	0.0388	0	2500	0	0	0	0	1	-360	360;
	53	55	0.03	0.107	0.3	789.941803	0	0	0	0	1	-360	360;
	53	65	0.035	0.08	0.05	2500	0	0	0	0	1	-360	360;
	54	56	0.01	0.008	0.07	789.941803	0	0	0	0	1	-360	360;
	54	62	0.008	0.069	0.13	789.941803	0	0	0	0	1	-360	360;
	55	57	0.0074	0.04	0.02	789.941803	0	0	0	0	1	-360	360;
	55	59	0.016	0.0817	0.04	789.941803	0	0	0	0	1	-360	360;
	56	58	0.002	0.015	0.11	2500	0	0	0	0	1	-360	360;
	57	59	0.014	0.068	0.03	2500	0	0	0	0	1	-360	360;
	58	60	0.0035	0.0344	0.27	2500	0	0	0	0	1	-360	360;
	58	62	0.002	0.018	0.03	2500	0	0	0	0	1	-360	360;
	59	61	0.068	0.143	0.06	2500	0	0	0	0	1	-360	360;
	62	63	0.0129	0.0803	0.15	2500	0	0	0	0	1	-360	360;
	63	64	0	0.046	0	2500	0	0	0	0	1	-360	360;
	63	67	0.012	0.093	0.18	2500	0	0	0	0	1	-360	360;
	64	65	0.035	0.08	0.05	2500	0	0	0	0	1	-360	360;
	64	68	0.0988	0.231	0.13	2500	0	0	0	0	1	-360	360;
	66	67	0	0.0231	0	2500	0	0	0	0	1	-360	360;
	66	69	0.0018	0.0274	0.27	2500	0	0	0	0	1	-360	360;
	67	68	0	0.049	0	2500	0	0	0	0	1	-360	360;
	67	70	0.007	0.0619	0.12	2500	0	0	0	0	1	-360	360;
	68	71	0.1203	0.2048	0.07	2500	0	0	0	0	1	-360	360;
	69	71	0	0.0375	0	2500	0	0	0	0	1	-360	360;
	70	71	0	0.049	0	2500	0	0	0	0	1	-360	360;
	71	72	0.0053	0.0135	0.1	2500	0	0	0	0	1	-360	360;
	73	74	0.0022	0.0196	0.34	2500	0	0	0	0	1	-360	360;
	73	74	0.0022	0.0196	0.34	2500	0	0	0	0	1	-360	360;
	74	77	0.0003	0.0043	0.08	2500	0	0	0	0	1	-360	360;
	74	78	0.0005	0.0045	0.32	2500	0	0	0	0	1	-360	360;
	74	78	0.0005	0.0045	0.32	2500	0	0	0	0	1	-360	360;
	76	77	0.003	0.0068	1.37	2500	0	0	0	0	1	-360	360;
	78	79	0.0003	0.0153	0	2500	0	0	0	0	1	-360	360;
	78	80	0.0135	0.0582	0.5	2500	0	0	0	0	1	-360	360;
	78	81	0.0005	0.0276	0	2500	0	0	0	0	1	-360	360;
	78	82	0.0005	0.0308	0	2500	0	0	0	0	1	-360	360;
	40	41	0	0.0161	0	2500	0	0	1	0	1	-360	360;
	49	48	0.0156	0.1536	0	2500	0	0	1	0	1	-360	360;
	54	52	0.002	0.0233	0	789.941803	0	0	1	0	1	-360	360;
	54	55	0	0.013	0	2500	0	0	1	0	1	-360	360;
	56	57	0	0.142	0	2500	0	0	1	0	1	-360	360;
	58	59	0	0.0093	0	2500	0	0	1	0	1	-360	360;
	60	61	0	0.064	0	2500	0	0	1	0	1	-360	360;
	75	76	0.0001	0.0074	0	2500	0	0	1	0	1	-360	360;
	38	39	0.00131	0.01997	0.51614	1216	2454	1804	0	0	1	-360	360;
	73	9002	0.000405	0.006185	0.63943	2432	4908	3608	0	0	1	-360	360;
	9002	74	0.000185	0.002815	0.29107	2432	4908	3608	0	0	1	-360	360;
	74	78	0.0009	0.015	0	5000	5000	5000	0	0	1	-360	360;
	77	78	0.0012	0.02	0	5000	5000	5000	0	0	1	-360	360;
	78	81	0.00072	0.012	0	5000	5000	5000	0	0	1	-360	360;
	78	79	0.0006	0.01	0	5000	5000	5000	0	0	1	-360	360;
	78	82	0.0006	0.01	0	5000	5000	5000	0	0	1	-360	360;
	78	9003	0.0012	0.02	0	5000	5000	5000	0	0	1	-360	360;
	9003	80	0.0012	0.02	0	5000	5000	5000	0	0	1	-360	360;
	81	80	0.0018	0.03	0	5000	5000	5000	0	0	1	-360	360;
	39	9001	0.0021	0.035	0	5000	5000	5000	0	0	1	-360	360;
	9001	73	0.0015	0.025	0	5000	5000	5000	0	0	1	-360	360;
];

%%-----  OPF Data  -----%%
%% generator cost data
%	1	startup	shutdown	n	x1	y1	...	xn	yn
%	2	startup	shutdown	n	c(n-1)	...	c0
mpc.gencost = [
	2	0	0	3	0	26.0833523	4319.96344;
	2	0	0	3	0	0	4974.59732;
	2	0	0	3	0	0	242.60274;
	2	0	0	3	0	2.14	47967.4763;
	2	0	0	3	0	25.4039338	5153.95508;
	2	0	0	3	0	2.14	19425.985;
	2	0	0	3	0	0	0;
	2	0	0	3	0	0	0;
	2	0	0	3	0	0	0;
	2	0	0	3	0	0	8378.83562;
	2	0	0	3	0	0	331.917808;
	2	0	0	3	0	25.0345853	3069.53459;
	2	0	0	3	0	26.3115917	3912.3145;
	2	0	0	3	0	84.6059873	0;
	2	0	0	3	0	26.5041754	6348.61943;
	2	0	0	3	0	2.14	23130.9005;
	2	0	0	3	0	26.0711283	1544.49986;
	2	0	0	3	0.5	500	0;
	2	0	0	3	0	26.6023139	2597.66301;
	2	0	0	3	0	33.8499079	4945.89108;
	2	0	0	3	0	27.6411935	3083.3164;
	2	0	0	3	0.02	180	0;
	2	0	0	3	0.02	180	0;
	2	0	0	3	0.02	180	0;
	2	0	0	3	0.02	180	0;
	2	0	0	3	0.02	180	0;
	2	0	0	3	0.02	180	0;
	2	0	0	3	0.02	180	0;
	2	0	0	3	0.02	180	0;
	2	0	0	3	0.02	180	0;
	2	0	0	3	0.02	180	0;
	2	0	0	3	0.02	180	0;
	2	0	0	3	0.02	180	0;
	2	0	0	3	0.02	180	0;
	2	0	0	3	0.02	180	0;
	2	0	0	2	0	0	0;
	2	0	0	2	0	0	0;
	2	0	0	2	0	0	0;
	2	0	0	2	0	0	0;
	2	0	0	2	0	0	0;
	2	0	0	2	0	0	0;
	2	0	0	2	0	0	0;
	2	0	0	2	0	0	0;
];

%% bus names
mpc.bus_name = {
	'NEW SEATHED ';
	'GILBOA      ';
	'LEEDS       ';
	'NEW SEATHED ';
	'ROTTERDAM   ';
	'ALBANY      ';
	'EDIC        ';
	'PORTER      ';
	'PORTER      ';
	'COLTON      ';
	'MOSES W     ';
	'MOSES E     ';
	'PLATTSBURGH ';
	'CLAY        ';
	'CLAY        ';
	'ROCHESTER   ';
	'ROCHESTER   ';
	'NIAGARA W   ';
	'NIAGARA E   ';
	'HUNTLEY     ';
	'HUNTLEY     ';
	'GARDENVILLE ';
	'GARDENVILLE ';
	'DUNKIRK     ';
	'DUNKIRK     ';
	'STOLLE RD   ';
	'MEYER       ';
	'MEYER       ';
	'GESONIDGE   ';
	'WATERCURE   ';
	'WRHL        ';
	'HILLSIDE    ';
	'BINGHAMTON  ';
	'BINGHAMTON  ';
	'BINGHAMTON  ';
	'LAPEER      ';
	'PLEASANT VLY';
	'MILLWOOD    ';
	'RAMAPO      ';
	'RAMAPO      ';
	'BUCHANAN    ';
	'CE UG       ';
	'RAV A-3     ';
	'NORTHPORT   ';
	'GOETHALS    ';
	'AK-3        ';
	'KNICKERBOCKER';
	'WOOD STREET';
	'EAST GARDEN CITY';
};
